#
# Generated from file Wang_12_19_05.mech
# by ck2cti on Thu Jan 12 10:24:28 2006
#
units(length = "cm", time = "s", quantity = "mol", act_energy = "cal/mol")


ideal_gas(name = "gas",
      elements = " O  H  C  N  Ar ",
      species = """ AR  N2  H  C  CH  CH2  CH2*  CH3  O  OH 
                   C2H  H2CC  C2H3  C2H5  HCO  CH2O  CH2OH  CH3O  HO2  C3H2 
                   C3H3  C2O  HCCO  aC3H5  CH3CCH2  CH3CHCH  nC3H7  iC3H7  CH3CO  CH2OCH 
                   n-C4H3  i-C4H3  n-C4H5  i-C4H5  C4H5-2  C4H7  CH2CHCO  C5H5  CH2CHCHCHO  CH3CHCHCO 
                   C6H3  A1-  C5H5O  C5H4OH  A1CH2  C6H5O  H2  CH4  H2O  C2H2 
                   C2H4  CO  C2H6  CH3OH  O2  H2O2  pC3H4  aC3H4  cC3H4  C3H6 
                   CH2CO  HCCOH  CH2CHO  CH3CHO  CH2OCH2  C3H8  CO2  C4H2  C4H4  C4H6 
                   C4H612  C4H6-2  C4H81  C2H3CHO  CH3CHOCH2  CH3CH2CHO  CH3COCH3  C5H6  H2C4O  C4H4O 
                   C2H3CHOCH2  C4H6O23  CH3CHCHCHO  C4H6O25  C6H2  l-C6H4  c-C6H4  A1  C5H4O  A1CH3 
                   C6H5OH  A1C2H  A1C2H3  A2 """,
      reactions = "all",
      initial_state = state(temperature = 300.0,
                        pressure = OneAtm)    )



#-------------------------------------------------------------------------------
#  Species data 
#-------------------------------------------------------------------------------

species(name = "AR",
    atoms = " Ar:1 ",
    thermo = (
       NASA( [  200.00,  1000.00], [ 2.500000000E+000,  0.000000000E+000, 
               0.000000000E+000,  0.000000000E+000,  0.000000000E+000,
              -7.453750000E+002,  4.379674900E+000] ),
       NASA( [ 1000.00,  6000.00], [ 2.500000000E+000,  0.000000000E+000, 
               0.000000000E+000,  0.000000000E+000,  0.000000000E+000,
              -7.453750000E+002,  4.379674900E+000] )
             ),
    note = "REF ELEMENT L 6/88"
       )

species(name = "N2",
    atoms = " N:2 ",
    thermo = (
       NASA( [  200.00,  1000.00], [ 3.531005280E+000, -1.236609880E-004, 
              -5.029994330E-007,  2.435306120E-009, -1.408812350E-012,
              -1.046976280E+003,  2.967470380E+000] ),
       NASA( [ 1000.00,  6000.00], [ 2.952576370E+000,  1.396900400E-003, 
              -4.926316030E-007,  7.860101950E-011, -4.607552040E-015,
              -9.239486880E+002,  5.871887620E+000] )
             ),
    note = "REF ELEMENT G 8/02"
       )

species(name = "H",
    atoms = " H:1 ",
    thermo = (
       NASA( [  200.00,  1000.00], [ 2.500000000E+000,  0.000000000E+000, 
               0.000000000E+000,  0.000000000E+000,  0.000000000E+000,
               2.547366000E+004, -4.466828500E-001] ),
       NASA( [ 1000.00,  6000.00], [ 2.500000000E+000,  0.000000000E+000, 
               0.000000000E+000,  0.000000000E+000,  0.000000000E+000,
               2.547366000E+004, -4.466828500E-001] )
             ),
    note = "L 6/94"
       )

species(name = "C",
    atoms = " C:1 ",
    thermo = (
       NASA( [  300.00,  1000.00], [ 2.556391200E+000, -3.347198900E-004, 
               7.605910100E-007, -7.526868900E-010,  2.711795000E-013,
               8.544356300E+004,  4.521881800E+000] ),
       NASA( [ 1000.00,  6000.00], [ 3.069922900E+000, -1.138403900E-003, 
               7.285799300E-007, -1.721992500E-010,  1.285522700E-014,
               8.524908700E+004,  1.665305000E+000] )
             ),
    note = "P 1/93"
       )

species(name = "CH",
    atoms = " C:1  H:1 ",
    thermo = (
       NASA( [  300.00,  1000.00], [ 3.490279500E+000,  3.196327500E-004, 
              -1.678051400E-006,  3.152335500E-009, -1.403471600E-012,
               7.079743600E+004,  2.082410000E+000] ),
       NASA( [ 1000.00,  6000.00], [ 2.741701900E+000,  1.307373600E-003, 
              -1.489333100E-007, -2.296991400E-011,  3.552445900E-015,
               7.105485900E+004,  6.207780000E+000] )
             ),
    note = "P 1/93"
       )

species(name = "CH2",
    atoms = " C:1  H:2 ",
    thermo = (
       NASA( [  300.00,  1000.00], [ 3.759286900E+000,  9.907224200E-004, 
               2.744968500E-006, -3.801660500E-009,  1.669541200E-012,
               4.600449400E+004,  1.577277100E+000] ),
       NASA( [ 1000.00,  6000.00], [ 3.058332400E+000,  3.273162100E-003, 
              -1.141343300E-006,  1.837034600E-010, -1.099610000E-014,
               4.619943200E+004,  5.171695100E+000] )
             ),
    note = "P 1/93"
       )

species(name = "CH2*",
    atoms = " C:1  H:2 ",
    thermo = (
       NASA( [  300.00,  1000.00], [ 4.204859700E+000, -2.409513000E-003, 
               8.337262800E-006, -6.795442700E-009,  1.982913800E-012,
               5.049591000E+004, -7.957808100E-001] ),
       NASA( [ 1000.00,  6000.00], [ 2.732912600E+000,  3.719468200E-003, 
              -1.338500500E-006,  2.195021500E-010, -1.330187600E-014,
               5.077412800E+004,  6.241709300E+000] )
             ),
    note = "P 1/93"
       )

species(name = "CH3",
    atoms = " C:1  H:3 ",
    thermo = (
       NASA( [  300.00,  1000.00], [ 3.673987400E+000,  2.008360200E-003, 
               5.734293600E-006, -6.871472200E-009,  2.542400100E-012,
               1.644515400E+004,  1.602692800E+000] ),
       NASA( [ 1000.00,  6000.00], [ 2.923248100E+000,  5.897290300E-003, 
              -2.034962000E-006,  3.208508300E-010, -1.885803300E-014,
               1.655535100E+004,  5.027187700E+000] )
             ),
    note = "P 1/93"
       )

species(name = "O",
    atoms = " O:1 ",
    thermo = (
       NASA( [  200.00,  1000.00], [ 3.168267100E+000, -3.279318840E-003, 
               6.643063960E-006, -6.128066240E-009,  2.112659710E-012,
               2.912225920E+004,  2.051933460E+000] ),
       NASA( [ 1000.00,  6000.00], [ 2.543636970E+000, -2.731624860E-005, 
              -4.190295200E-009,  4.954818450E-012, -4.795536940E-016,
               2.922601200E+004,  4.922294570E+000] )
             ),
    note = "L 1/90"
       )

species(name = "OH",
    atoms = " H:1  O:1 ",
    thermo = (
       NASA( [  300.00,  1000.00], [ 3.983784100E+000, -2.345604900E-003, 
               4.487153800E-006, -3.753021100E-009,  1.319182900E-012,
               3.615831900E+003, -6.899214100E-002] ),
       NASA( [ 1000.00,  6000.00], [ 3.024873300E+000,  7.323817300E-004, 
              -4.954539400E-008, -1.844545400E-011,  2.230495400E-015,
               3.877728900E+003,  4.829671100E+000] )
             ),
    note = "P 1/93"
       )

species(name = "C2H",
    atoms = " C:2  H:1 ",
    thermo = (
       NASA( [  300.00,  1000.00], [ 2.883697000E+000,  1.345206500E-002, 
              -2.858338300E-005,  2.959377200E-008, -1.097775600E-011,
               6.683998500E+004,  6.248016800E+000] ),
       NASA( [ 1000.00,  6000.00], [ 3.357031500E+000,  4.394159900E-003, 
              -1.627425700E-006,  2.598181600E-010, -1.518928800E-014,
               6.705125800E+004,  5.595606700E+000] )
             ),
    note = "P 1/93"
       )

species(name = "H2CC",
    atoms = " H:2  C:2 ",
    thermo = (
       NASA( [  200.00,  1000.00], [ 3.281548300E+000,  6.976479100E-003, 
              -2.385524400E-006, -1.210443200E-009,  9.818954500E-013,
               4.862179400E+004,  5.920391000E+000] ),
       NASA( [ 1000.00,  6000.00], [ 4.278034000E+000,  4.756280400E-003, 
              -1.630100900E-006,  2.546280600E-010, -1.488637900E-014,
               4.831668800E+004,  6.402370100E-001] )
             ),
    note = "L12/89"
       )

species(name = "C2H3",
    atoms = " C:2  H:3 ",
    thermo = (
       NASA( [  300.00,  1000.00], [ 3.215886900E+000,  1.494084200E-003, 
               2.596453600E-005, -3.580161500E-008,  1.472449100E-011,
               3.485929600E+004,  8.495405400E+000] ),
       NASA( [ 1000.00,  6000.00], [ 4.314198100E+000,  7.566018600E-003, 
              -2.689011000E-006,  4.318938900E-010, -2.571666800E-014,
               3.416786500E+004,  7.730948900E-001] )
             ),
    note = "P 1/93"
       )

species(name = "C2H5",
    atoms = " C:2  H:5 ",
    thermo = (
       NASA( [  300.00,  1000.00], [ 4.299349800E+000, -4.137206000E-003, 
               4.959175100E-005, -5.978479300E-008,  2.300321700E-011,
               1.284240200E+004,  4.737397200E+000] ),
       NASA( [ 1000.00,  6000.00], [ 4.183028800E+000,  1.264230800E-002, 
              -4.546941400E-006,  7.382519200E-010, -4.432749300E-014,
               1.209394500E+004,  1.418284600E+000] )
             ),
    note = "P 1/93"
       )

species(name = "HCO",
    atoms = " C:1  H:1  O:1 ",
    thermo = (
       NASA( [  300.00,  1000.00], [ 4.222937400E+000, -3.255785000E-003, 
               1.381099200E-005, -1.334953100E-008,  4.351960300E-012,
               3.839494600E+003,  3.386619900E+000] ),
       NASA( [ 1000.00,  6000.00], [ 3.637469000E+000,  3.104322600E-003, 
              -1.139648000E-006,  1.901311900E-010, -1.170107900E-014,
               3.716272700E+003,  5.123799500E+000] )
             ),
    note = "P 1/93"
       )

species(name = "CH2O",
    atoms = " C:1  H:2  O:1 ",
    thermo = (
       NASA( [  300.00,  1000.00], [ 4.791445000E+000, -9.892649300E-003, 
               3.728244000E-005, -3.788605300E-008,  1.316078100E-011,
              -1.430893500E+004,  6.125743400E-001] ),
       NASA( [ 1000.00,  6000.00], [ 3.106427500E+000,  6.317570100E-003, 
              -2.329401400E-006,  3.847502700E-010, -2.338270000E-014,
              -1.445594800E+004,  6.387070400E+000] )
             ),
    note = "P 1/93"
       )

species(name = "CH2OH",
    atoms = " C:1  H:3  O:1 ",
    thermo = (
       NASA( [  300.00,  1000.00], [ 3.867480100E+000,  5.568156500E-003, 
               6.013739100E-006, -1.055108100E-008,  4.411720100E-012,
              -3.194119100E+003,  5.458139900E+000] ),
       NASA( [ 1000.00,  6000.00], [ 4.527316300E+000,  6.863887500E-003, 
              -2.460238600E-006,  4.035289300E-010, -2.447907000E-014,
              -3.528574100E+003,  1.298924200E+000] )
             ),
    note = "P 1/93"
       )

species(name = "CH3O",
    atoms = " C:1  H:3  O:1 ",
    thermo = (
       NASA( [  300.00,  1000.00], [ 2.108657700E+000,  7.199342900E-003, 
               5.382864800E-006, -7.428370400E-009,  2.096840600E-012,
               9.783883300E+002,  1.314175000E+001] ),
       NASA( [ 1000.00,  6000.00], [ 3.760027400E+000,  7.930313600E-003, 
              -2.730710200E-006,  4.242015900E-010, -2.449672700E-014,
               1.271828100E+002,  2.973119700E+000] )
             ),
    note = "P 1/93"
       )

species(name = "HO2",
    atoms = " H:1  O:2 ",
    thermo = (
       NASA( [  300.00,  1000.00], [ 4.302350600E+000, -4.749226700E-003, 
               2.114930200E-005, -2.425872600E-008,  9.283023800E-012,
               2.944876000E+002,  3.713682700E+000] ),
       NASA( [ 1000.00,  6000.00], [ 4.215635800E+000,  1.782154800E-003, 
              -2.704779100E-007, -2.816236500E-012,  2.227345700E-015,
               4.762021200E+001,  2.726091800E+000] )
             ),
    note = "P 1/93"
       )

species(name = "C3H2",
    atoms = " C:3  H:2 ",
    thermo = (
       NASA( [  300.00,  1000.00], [ 2.700178900E+000,  1.473806200E-002, 
              -3.083964000E-006, -8.822466700E-009,  5.352941100E-012,
               5.218993200E+004,  8.719103200E+000] ),
       NASA( [ 1000.00,  6000.00], [ 6.129560700E+000,  6.680708800E-003, 
              -2.259217100E-006,  3.548391900E-010, -2.114076500E-014,
               5.129480000E+004, -9.040829000E+000] )
             ),
    note = "P 1/93"
       )

species(name = "C3H3",
    atoms = " C:3  H:3 ",
    thermo = (
       NASA( [  200.00,  1000.00], [ 1.351109270E+000,  3.274112230E-002, 
              -4.738271350E-005,  3.763098080E-008, -1.185409230E-011,
               4.010577830E+004,  1.520589240E+001] ),
       NASA( [ 1000.00,  6000.00], [ 7.142218800E+000,  7.619020050E-003, 
              -2.674599500E-006,  4.249148010E-010, -2.514754150E-014,
               3.890874270E+004, -1.258484360E+001] )
             ),
    note = "T 5/97"
       )

species(name = "C2O",
    atoms = " C:2  O:1 ",
    thermo = (
       NASA( [  300.00,  1000.00], [ 3.365061700E+000,  8.267508900E-003, 
              -8.829471200E-006,  5.640178200E-009, -1.568592200E-012,
               3.317136700E+004,  6.729340100E+000] ),
       NASA( [ 1000.00,  6000.00], [ 4.954769600E+000,  2.738600900E-003, 
              -9.550812800E-007,  1.445165200E-010, -8.120323600E-015,
               3.278313700E+004, -1.218490600E+000] )
             ),
    note = "P 1/93"
       )

species(name = "HCCO",
    atoms = " C:2  H:1  O:1 ",
    thermo = (
       NASA( [  300.00,  1000.00], [ 2.251175800E+000,  1.765412700E-002, 
              -2.371381000E-005,  1.724613700E-008, -5.050614200E-012,
               2.005942700E+004,  1.249327400E+001] ),
       NASA( [ 1000.00,  6000.00], [ 5.802075000E+000,  3.730639700E-003, 
              -1.353574600E-006,  2.211460600E-010, -1.327062600E-014,
               1.926563800E+004, -4.876437900E+000] )
             ),
    note = "P 1/93"
       )

species(name = "aC3H5",
    atoms = " C:3  H:5 ",
    thermo = (
       NASA( [  300.00,  1000.00], [ 1.364314100E+000,  1.980615900E-002, 
               1.251710600E-005, -3.338045400E-008,  1.585794800E-011,
               1.924558800E+004,  1.716849000E+001] ),
       NASA( [ 1000.00,  6000.00], [ 7.253064500E+000,  1.264371500E-002, 
              -4.371910700E-006,  6.794105500E-010, -3.920625700E-014,
               1.723219700E+004, -1.528160400E+001] )
             ),
    note = "P 1/93"
       )

species(name = "CH3CCH2",
    atoms = " C:3  H:5 ",
    thermo = (
       NASA( [  300.00,  1000.00], [ 1.729658700E+000,  2.242121900E-002, 
              -5.221851200E-006, -6.675824800E-009,  3.791086500E-012,
               2.904073100E+004,  1.658206000E+001] ),
       NASA( [ 1000.00,  6000.00], [ 6.502287400E+000,  1.368832200E-002, 
              -4.881394400E-006,  7.814182500E-010, -4.634562100E-014,
               2.742424000E+004, -9.349812800E+000] )
             ),
    note = "P 1/93"
       )

species(name = "CH3CHCH",
    atoms = " C:3  H:5 ",
    thermo = (
       NASA( [  300.00,  1000.00], [ 9.164013200E-001,  2.641211800E-002, 
              -1.170655300E-005, -2.361183200E-009,  2.794073100E-012,
               3.091638900E+004,  1.997848900E+001] ),
       NASA( [ 1000.00,  6000.00], [ 6.610685500E+000,  1.353476500E-002, 
              -4.814284000E-006,  7.692474400E-010, -4.555713200E-014,
               2.914867700E+004, -1.025858300E+001] )
             ),
    note = "P 1/93"
       )

species(name = "nC3H7",
    atoms = " C:3  H:7 ",
    thermo = (
       NASA( [  300.00,  1000.00], [ 1.047094800E+000,  2.602452100E-002, 
               2.312958500E-006, -1.955046300E-008,  9.355119100E-012,
               1.031257200E+004,  2.114444000E+001] ),
       NASA( [ 1000.00,  6000.00], [ 7.581963900E+000,  1.638716200E-002, 
              -5.600786800E-006,  8.714308900E-010, -5.053973500E-014,
               8.009955500E+003, -1.485848800E+001] )
             ),
    note = "P 1/93"
       )

species(name = "iC3H7",
    atoms = " C:3  H:7 ",
    thermo = (
       NASA( [  300.00,  1000.00], [ 1.452985800E+000,  2.094270600E-002, 
               7.841303000E-006, -1.861751900E-008,  7.180221800E-012,
               9.421547400E+003,  2.008227200E+001] ),
       NASA( [ 1000.00,  6000.00], [ 6.433579200E+000,  1.748836100E-002, 
              -6.003867000E-006,  9.359545700E-010, -5.433017600E-014,
               7.341725100E+003, -8.654704600E+000] )
             ),
    note = "P 1/93"
       )

species(name = "CH3CO",
    atoms = " C:2  H:3  O:1 ",
    thermo = (
       NASA( [  200.00,  1000.00], [ 4.163425700E+000, -2.326161000E-004, 
               3.426782000E-005, -4.410522700E-008,  1.727561200E-011,
              -2.657452900E+003,  7.346828000E+000] ),
       NASA( [ 1000.00,  6000.00], [ 5.944773100E+000,  7.866720500E-003, 
              -2.886588200E-006,  4.727087500E-010, -2.859986100E-014,
              -3.787307500E+003, -5.013675100E+000] )
             ),
    note = "T 9/92"
       )

species(name = "CH2OCH",
    atoms = " C:2  H:3  O:1 ",
    thermo = (
       NASA( [  300.00,  1000.00], [ 1.086134900E+000,  1.284049300E-002, 
               2.425198300E-006, -4.477026700E-009, -2.884881500E-013,
               1.591048800E+004,  3.339261400E+001] ),
       NASA( [ 1000.00,  6000.00], [ 5.453234500E+000,  9.808344900E-003, 
              -4.499788700E-006,  8.855390900E-010, -6.101885500E-014,
               1.398165600E+004,  7.876010700E+000] )
             ),
    note = "P 1/93"
       )

species(name = "n-C4H3",
    atoms = " C:4  H:3 ",
    thermo = (
       NASA( [  300.00,  1000.00], [-3.126677400E-001,  4.688216500E-002, 
              -6.801407800E-005,  5.308869900E-008, -1.648558800E-011,
               6.247578900E+004,  2.460468600E+001] ),
       NASA( [ 1000.00,  6000.00], [ 8.782512500E+000,  9.215513900E-003, 
              -3.353005300E-006,  5.463509200E-010, -3.284159000E-014,
               6.050528100E+004, -1.948554800E+001] )
             ),
    note = "P 1/93"
       )

species(name = "i-C4H3",
    atoms = " C:4  H:3 ",
    thermo = (
       NASA( [  300.00,  1000.00], [ 2.078442900E+000,  4.087044500E-002, 
              -6.226083400E-005,  5.179914300E-008, -1.707954800E-011,
               5.800551600E+004,  1.363634900E+001] ),
       NASA( [ 1000.00,  6000.00], [ 9.702095100E+000,  8.189221200E-003, 
              -2.927637900E-006,  4.721919000E-010, -2.822059000E-014,
               5.636621600E+004, -2.316519700E+001] )
             ),
    note = "P 1/93"
       )

species(name = "n-C4H5",
    atoms = " C:4  H:5 ",
    thermo = (
       NASA( [  300.00,  1000.00], [ 1.611440700E-001,  3.984214200E-002, 
              -3.402621400E-005,  1.516942200E-008, -2.472614400E-012,
               4.143006600E+004,  2.354451300E+001] ),
       NASA( [ 1000.00,  6000.00], [ 8.787200900E+000,  1.412426200E-002, 
              -4.981895500E-006,  7.909408200E-010, -4.662833600E-014,
               3.909093200E+004, -2.066012600E+001] )
             ),
    note = "P 1/93"
       )

species(name = "i-C4H5",
    atoms = " C:4  H:5 ",
    thermo = (
       NASA( [  300.00,  1000.00], [-2.617308500E-002,  3.805150700E-002, 
              -2.767914500E-005,  7.916389900E-009,  3.493991900E-013,
               3.749689800E+004,  2.442037100E+001] ),
       NASA( [ 1000.00,  6000.00], [ 8.482980700E+000,  1.449271800E-002, 
              -5.132439700E-006,  8.169711000E-010, -4.825241900E-014,
               3.510595500E+004, -1.960745900E+001] )
             ),
    note = "P 1/93"
       )

species(name = "C4H5-2",
    atoms = " C:4  H:5 ",
    thermo = (
       NASA( [  300.00,  1000.00], [ 2.975551400E+000,  2.439959800E-002, 
              -9.017103800E-006, -1.169464300E-010,  4.576596300E-014,
               3.550267400E+004,  1.201140500E+001] ),
       NASA( [ 1000.00,  6000.00], [ 1.271266600E+001,  5.021592200E-003, 
               9.631464200E-007, -4.460775600E-010,  3.553721100E-014,
               3.221214000E+004, -4.075005500E+001] )
             ),
    note = "P 1/93"
       )

species(name = "C4H7",
    atoms = " C:4  H:7 ",
    thermo = (
       NASA( [  300.00,  1000.00], [ 2.848639200E-001,  3.697774000E-002, 
              -8.655288100E-006, -1.502922900E-008,  8.983061300E-012,
               2.055167500E+004,  2.449336900E+001] ),
       NASA( [ 1000.00,  6000.00], [ 9.268775000E+000,  1.899024800E-002, 
              -6.695934000E-006,  1.060406300E-009, -6.234793800E-014,
               1.769506400E+004, -2.365933500E+001] )
             ),
    note = "P 1/93"
       )

species(name = "CH2CHCO",
    atoms = " C:3  H:3  O:1 ",
    thermo = (
       NASA( [  200.00,  1000.00], [ 3.211694670E+000,  1.184221050E-002, 
               1.674625820E-005, -3.069471760E-008,  1.330488160E-011,
               7.128157500E+003,  1.008816630E+001] ),
       NASA( [ 1000.00,  6000.00], [ 6.958422270E+000,  1.071932110E-002, 
              -3.852184940E-006,  6.220090640E-010, -3.724016400E-014,
               5.648264980E+003, -1.147457860E+001] )
             ),
    note = "T05/99"
       )

species(name = "C5H5",
    atoms = " C:5  H:5 ",
    thermo = (
       NASA( [  200.00,  1000.00], [-9.590371800E-001,  3.139685900E-002, 
               2.672379400E-005, -6.894187200E-008,  3.330185600E-011,
               3.072912000E+004,  2.907281600E+001] ),
       NASA( [ 1000.00,  6000.00], [ 1.084406600E+001,  1.539283700E-002, 
              -5.563042100E-006,  9.018937100E-010, -5.415653100E-014,
               2.690056600E+004, -3.525494800E+001] )
             ),
    note = "L 7/89"
       )

species(name = "CH2CHCHCHO",
    atoms = " C:4  H:5  O:1 ",
    thermo = (
       NASA( [  200.00,  1000.00], [-1.081998600E+000,  3.649297600E-002, 
              -1.522559500E-005, -5.626071700E-018,  2.161137500E-021,
               3.567132300E+003,  3.271425500E+001] ),
       NASA( [ 1000.00,  6000.00], [ 8.909679200E+000,  1.343641400E-002, 
              -7.629773900E-007, -1.691148100E-009,  2.955404400E-013,
               1.488987400E+003, -1.796624600E+001] )
             ),
    note = "T03/97"
       )

species(name = "CH3CHCHCO",
    atoms = " C:4  H:5  O:1 ",
    thermo = (
       NASA( [  200.00,  1000.00], [-1.081998600E+000,  3.649297600E-002, 
              -1.522559500E-005, -5.626071700E-018,  2.161137500E-021,
               3.567132300E+003,  3.271425500E+001] ),
       NASA( [ 1000.00,  6000.00], [ 8.909679200E+000,  1.343641400E-002, 
              -7.629773900E-007, -1.691148100E-009,  2.955404400E-013,
               1.488987400E+003, -1.796624600E+001] )
             ),
    note = "T03/97"
       )

species(name = "C6H3",
    atoms = " C:6  H:3 ",
    thermo = (
       NASA( [  300.00,  1000.00], [ 1.175912200E+000,  5.557056600E-002, 
              -7.313601500E-005,  5.214318500E-008, -1.507372900E-011,
               8.564755800E+004,  1.919244700E+001] ),
       NASA( [ 1000.00,  6000.00], [ 1.294468300E+001,  1.129688200E-002, 
              -4.217081500E-006,  6.977875300E-010, -4.235136200E-014,
               8.289772600E+004, -3.889850100E+001] )
             ),
    note = "P 1/93"
       )

species(name = "A1-",
    atoms = " C:6  H:5 ",
    thermo = (
       NASA( [  300.00,  1000.00], [-4.903266300E+000,  5.975646200E-002, 
              -4.554371200E-005,  1.485276700E-008, -8.713599700E-013,
               3.873277800E+004,  4.654995700E+001] ),
       NASA( [ 1000.00,  6000.00], [ 1.055966100E+001,  1.830135900E-002, 
              -6.560621100E-006,  1.053110700E-009, -6.261863600E-014,
               3.429120400E+004, -3.390290500E+001] )
             ),
    note = "P 1/93"
       )

species(name = "C5H5O",
    atoms = " C:5  O:1  H:5 ",
    thermo = (
       NASA( [  200.00,  1000.00], [ 2.304283500E-001,  3.232269100E-002, 
               2.890044300E-005, -7.067997700E-008,  3.340689100E-011,
               8.075308200E+003,  2.533097400E+001] ),
       NASA( [ 1000.00,  6000.00], [ 1.260642200E+001,  1.674726000E-002, 
              -6.109857400E-006,  9.967655700E-010, -6.011320100E-014,
               3.931345500E+003, -4.260427700E+001] )
             ),
    note = "L 7/89"
       )

species(name = "C5H4OH",
    atoms = " C:5  H:5  O:1 ",
    thermo = (
       NASA( [  200.00,  1000.00], [-1.282223600E+000,  4.904116000E-002, 
              -1.368899700E-005, -2.913385800E-008,  1.900696400E-011,
               8.008709800E+003,  3.079835800E+001] ),
       NASA( [ 1000.00,  6000.00], [ 1.336791200E+001,  1.520578500E-002, 
              -5.459225800E-006,  8.813486600E-010, -5.277445400E-014,
               3.841150600E+003, -4.592083900E+001] )
             ),
    note = "L 8/89"
       )

species(name = "A1CH2",
    atoms = " C:7  H:7 ",
    thermo = (
       NASA( [  300.00,  1000.00], [ 4.856195600E-001,  3.848100500E-002, 
               3.294320900E-005, -7.706393500E-008,  3.546009100E-011,
               2.330623000E+004,  2.352989700E+001] ),
       NASA( [ 1000.00,  6000.00], [ 1.460207400E+001,  2.242253000E-002, 
              -7.881834100E-006,  1.234803900E-009, -7.158461100E-014,
               1.835901100E+004, -5.472878100E+001] )
             ),
    note = "P 1/93"
       )

species(name = "C6H5O",
    atoms = " C:6  H:5  O:1 ",
    thermo = (
       NASA( [  300.00,  1000.00], [-1.825689100E+000,  4.815105200E-002, 
              -4.753708500E-006, -3.393617900E-008,  1.861666400E-011,
               4.243406400E+003,  3.354141100E+001] ),
       NASA( [ 1000.00,  6000.00], [ 1.360418900E+001,  1.808872700E-002, 
              -6.388217400E-006,  1.005842000E-009, -5.840192000E-014,
              -6.109651700E+002, -4.914340600E+001] )
             ),
    note = "P 1/93"
       )

species(name = "H2",
    atoms = " H:2 ",
    thermo = (
       NASA( [  300.00,  1000.00], [ 2.344803500E+000,  7.976865300E-003, 
              -1.946898800E-005,  2.014950800E-008, -7.374609800E-012,
              -9.178554900E+002,  6.809068600E-001] ),
       NASA( [ 1000.00,  6000.00], [ 3.190629800E+000,  3.089023900E-004, 
               1.895191200E-007, -6.701256300E-011,  5.540563800E-015,
              -9.044358400E+002, -2.429341600E+000] )
             ),
    note = "P 1/93"
       )

species(name = "CH4",
    atoms = " C:1  H:4 ",
    thermo = (
       NASA( [  300.00,  1000.00], [ 5.146464700E+000, -1.364700300E-002, 
               4.912379600E-005, -4.842155900E-008,  1.665235200E-011,
              -1.024624600E+004, -4.626885700E+000] ),
       NASA( [ 1000.00,  6000.00], [ 2.429942700E+000,  8.489627500E-003, 
              -2.334712100E-006,  2.819440400E-010, -1.275074200E-014,
              -1.028805800E+004,  5.662582800E+000] )
             ),
    note = "P 1/93"
       )

species(name = "H2O",
    atoms = " H:2  O:1 ",
    thermo = (
       NASA( [  300.00,  1000.00], [ 4.204057200E+000, -2.075738400E-003, 
               6.621815700E-006, -5.600622700E-009,  1.817272200E-012,
              -3.029448400E+004, -8.717672200E-001] ),
       NASA( [ 1000.00,  6000.00], [ 2.758887300E+000,  2.804251600E-003, 
              -6.602192300E-007,  6.607645400E-011, -2.212018000E-015,
              -2.991474200E+004,  6.438111600E+000] )
             ),
    note = "P 1/93"
       )

species(name = "C2H2",
    atoms = " C:2  H:2 ",
    thermo = (
       NASA( [  300.00,  1000.00], [ 8.005634300E-001,  2.342147900E-002, 
              -3.567399400E-005,  2.819035600E-008, -8.570814900E-012,
               2.643009500E+004,  1.397356500E+001] ),
       NASA( [ 1000.00,  6000.00], [ 4.967096400E+000,  4.271217100E-003, 
              -1.217383100E-006,  1.539920400E-010, -7.333131000E-015,
               2.564955100E+004, -5.681285200E+000] )
             ),
    note = "P 1/93"
       )

species(name = "C2H4",
    atoms = " C:2  H:4 ",
    thermo = (
       NASA( [  300.00,  1000.00], [ 3.955525300E+000, -7.544852400E-003, 
               5.703331300E-005, -6.908834500E-008,  2.696142100E-011,
               5.090229000E+003,  4.113267200E+000] ),
       NASA( [ 1000.00,  6000.00], [ 3.980825300E+000,  1.050283100E-002, 
              -3.727165800E-006,  5.959044700E-010, -3.533394300E-014,
               4.272868600E+003, -2.078379400E-001] )
             ),
    note = "P 1/93"
       )

species(name = "CO",
    atoms = " C:1  O:1 ",
    thermo = (
       NASA( [  300.00,  1000.00], [ 3.581546300E+000, -6.197164200E-004, 
               1.027845300E-006,  9.096763700E-010, -9.109267600E-013,
              -1.434398600E+004,  3.499215800E+000] ),
       NASA( [ 1000.00,  6000.00], [ 3.088835500E+000,  1.269439100E-003, 
              -4.316583400E-007,  6.553274300E-011, -3.724275300E-015,
              -1.427975600E+004,  5.797917800E+000] )
             ),
    note = "P 1/93"
       )

species(name = "C2H6",
    atoms = " C:2  H:6 ",
    thermo = (
       NASA( [  300.00,  1000.00], [ 4.284465500E+000, -5.450049800E-003, 
               5.980925200E-005, -7.069713600E-008,  2.680887800E-011,
              -1.152154800E+004,  2.695614900E+000] ),
       NASA( [ 1000.00,  6000.00], [ 3.961836300E+000,  1.551923800E-002, 
              -5.573175000E-006,  9.014564000E-010, -5.394508900E-014,
              -1.241650300E+004, -5.043071500E-001] )
             ),
    note = "P 1/93"
       )

species(name = "CH3OH",
    atoms = " C:1  H:4  O:1 ",
    thermo = (
       NASA( [  300.00,  1000.00], [ 5.714081200E+000, -1.522209700E-002, 
               6.522381600E-005, -7.106012400E-008,  2.612741500E-011,
              -2.564245100E+004, -1.498579800E+000] ),
       NASA( [ 1000.00,  6000.00], [ 3.483262400E+000,  1.047900000E-002, 
              -3.751776200E-006,  6.092190200E-010, -3.661483400E-014,
              -2.595484700E+004,  5.349295800E+000] )
             ),
    note = "P 1/93"
       )

species(name = "O2",
    atoms = " O:2 ",
    thermo = (
       NASA( [  300.00,  1000.00], [ 3.777893600E+000, -2.961621600E-003, 
               9.751019600E-006, -9.567156500E-009,  3.195134100E-012,
              -1.063407200E+003,  3.676546100E+000] ),
       NASA( [ 1000.00,  6000.00], [ 3.930779100E+000,  1.107324300E-004, 
               2.165910200E-007, -6.833119200E-011,  5.497910000E-015,
              -1.311105900E+003,  1.946444700E+000] )
             ),
    note = "P 1/93"
       )

species(name = "H2O2",
    atoms = " H:2  O:2 ",
    thermo = (
       NASA( [  300.00,  1000.00], [ 4.275774500E+000, -5.401379200E-004, 
               1.672731900E-005, -2.156926700E-008,  8.620654500E-012,
              -1.770242200E+004,  3.436012700E+000] ),
       NASA( [ 1000.00,  6000.00], [ 4.646503500E+000,  3.905023900E-003, 
              -1.202777700E-006,  1.753750700E-010, -9.781540300E-015,
              -1.802910600E+004,  3.043888300E-001] )